* NGSPICE file created from caravel_openframe.ext - technology: gf180mcuD

.subckt POLY_SUB_FILL_1 a_597_223# a_685_131#
X0 a_685_131# a_597_223# cap_nmos_06v0 c_width=7u c_length=6u
X1 a_685_131# a_597_223# cap_nmos_06v0 c_width=7u c_length=6u
.ends

.subckt GF_NI_FILL10_1 VSS VDD DVSS DVDD
XPOLY_SUB_FILL_1_0[0] VSS VDD POLY_SUB_FILL_1
XPOLY_SUB_FILL_1_0[1] VSS VDD POLY_SUB_FILL_1
XPOLY_SUB_FILL_1_0[2] VSS VDD POLY_SUB_FILL_1
XPOLY_SUB_FILL_1_0[3] VSS VDD POLY_SUB_FILL_1
XPOLY_SUB_FILL_1_0[4] VSS VDD POLY_SUB_FILL_1
XPOLY_SUB_FILL_1_0[5] VSS VDD POLY_SUB_FILL_1
XPOLY_SUB_FILL_1_0[6] VSS VDD POLY_SUB_FILL_1
XPOLY_SUB_FILL_1_0[7] VSS VDD POLY_SUB_FILL_1
XPOLY_SUB_FILL_1_0[8] VSS VDD POLY_SUB_FILL_1
XPOLY_SUB_FILL_1_0[9] VSS VDD POLY_SUB_FILL_1
XPOLY_SUB_FILL_1_0[10] VSS VDD POLY_SUB_FILL_1
XPOLY_SUB_FILL_1_0[11] VSS VDD POLY_SUB_FILL_1
XPOLY_SUB_FILL_1_0[12] VSS VDD POLY_SUB_FILL_1
XPOLY_SUB_FILL_1_0[13] VSS VDD POLY_SUB_FILL_1
XPOLY_SUB_FILL_1_0[14] VSS VDD POLY_SUB_FILL_1
XPOLY_SUB_FILL_1_0[15] VSS VDD POLY_SUB_FILL_1
.ends

.subckt GF_NI_FILL10_0 DVSS DVDD VDD VSS
XGF_NI_FILL10_1_0 VSS VDD DVSS DVDD GF_NI_FILL10_1
.ends

.subckt gf180mcu_ocd_io__fill10 VDD VSS DVDD DVSS
XGF_NI_FILL10_0_0 DVSS DVDD VDD VSS GF_NI_FILL10_0
.ends

.subckt GF_NI_FILL10_1short VSS VDD DVSS DVDD
XPOLY_SUB_FILL_1_0[0] VSS VDD POLY_SUB_FILL_1
XPOLY_SUB_FILL_1_0[1] VSS VDD POLY_SUB_FILL_1
XPOLY_SUB_FILL_1_0[2] VSS VDD POLY_SUB_FILL_1
XPOLY_SUB_FILL_1_0[3] VSS VDD POLY_SUB_FILL_1
XPOLY_SUB_FILL_1_0[4] VSS VDD POLY_SUB_FILL_1
XPOLY_SUB_FILL_1_0[5] VSS VDD POLY_SUB_FILL_1
XPOLY_SUB_FILL_1_0[6] VSS VDD POLY_SUB_FILL_1
XPOLY_SUB_FILL_1_0[7] VSS VDD POLY_SUB_FILL_1
XPOLY_SUB_FILL_1_0[8] VSS VDD POLY_SUB_FILL_1
XPOLY_SUB_FILL_1_0[9] VSS VDD POLY_SUB_FILL_1
XPOLY_SUB_FILL_1_0[10] VSS VDD POLY_SUB_FILL_1
XPOLY_SUB_FILL_1_0[11] VSS VDD POLY_SUB_FILL_1
XPOLY_SUB_FILL_1_0[12] VSS VDD POLY_SUB_FILL_1
XPOLY_SUB_FILL_1_0[13] VSS VDD POLY_SUB_FILL_1
.ends

.subckt GF_NI_FILL10_0short DVSS DVDD VDD VSS
XGF_NI_FILL10_1_0 VSS VDD DVSS DVDD GF_NI_FILL10_1short
.ends

.subckt gf180mcu_as_sc_mcu7t3v3__decap_4 VDD VNW VPW VSS
X0 a_126_408# a_28_500# VSS VPW nfet_03v3 ad=0.44p pd=2.88u as=0.49p ps=2.98u w=1u l=1.03u
X1 VDD a_126_408# a_28_500# VNW pfet_03v3 ad=0.4752p pd=3.04u as=0.5292p ps=3.14u w=1.08u l=1.03u
.ends

.subckt gf180mcu_as_sc_mcu7t3v3__tiel_4 VDD VNW VPW VSS ZERO
X0 ZERO a_112_319# VSS VPW nfet_03v3 ad=0.44p pd=2.88u as=0.44p ps=2.88u w=1u l=0.28u
X1 a_112_319# a_112_319# VDD VNW pfet_03v3 ad=0.6072p pd=3.64u as=0.6072p ps=3.64u w=1.38u l=0.28u
.ends

.subckt gf180mcu_as_sc_mcu7t3v3__tieh_4 VDD VNW VPW VSS ONE
X0 a_112_319# a_112_319# VSS VPW nfet_03v3 ad=0.44p pd=2.88u as=0.44p ps=2.88u w=1u l=0.28u
X1 ONE a_112_319# VDD VNW pfet_03v3 ad=0.6072p pd=3.64u as=0.6072p ps=3.64u w=1.38u l=0.28u
.ends

.subckt gf180mcu_as_sc_mcu7t3v3__buff_12 VDD VNW VPW VSS A Y
X0 VSS a_172_68# Y VPW nfet_03v3 ad=0.985p pd=3.97u as=0.26p ps=1.52u w=1u l=0.28u
X1 VSS a_172_68# Y VPW nfet_03v3 ad=0.26p pd=1.52u as=0.26p ps=1.52u w=1u l=0.28u
X2 VDD A a_172_68# VNW pfet_03v3 ad=0.3588p pd=1.9u as=0.3588p ps=1.9u w=1.38u l=0.28u
X3 Y a_172_68# VDD VNW pfet_03v3 ad=0.3588p pd=1.9u as=0.3588p ps=1.9u w=1.38u l=0.28u
X4 Y a_172_68# VDD VNW pfet_03v3 ad=0.3588p pd=1.9u as=0.3588p ps=1.9u w=1.38u l=0.28u
X5 VDD a_172_68# Y VNW pfet_03v3 ad=1.3593p pd=4.73u as=0.3588p ps=1.9u w=1.38u l=0.28u
X6 a_172_68# A VSS VPW nfet_03v3 ad=0.26p pd=1.52u as=0.44p ps=2.88u w=1u l=0.28u
X7 VSS a_172_68# Y VPW nfet_03v3 ad=0.26p pd=1.52u as=0.26p ps=1.52u w=1u l=0.28u
X8 VDD a_172_68# Y VNW pfet_03v3 ad=0.3588p pd=1.9u as=0.3588p ps=1.9u w=1.38u l=0.28u
X9 Y a_172_68# VDD VNW pfet_03v3 ad=0.36915p pd=1.915u as=0.3588p ps=1.9u w=1.38u l=0.28u
X10 VDD a_172_68# Y VNW pfet_03v3 ad=0.3588p pd=1.9u as=0.3588p ps=1.9u w=1.38u l=0.28u
X11 Y a_172_68# VSS VPW nfet_03v3 ad=0.26p pd=1.52u as=0.26p ps=1.52u w=1u l=0.28u
X12 Y a_172_68# VSS VPW nfet_03v3 ad=0.26p pd=1.52u as=0.26p ps=1.52u w=1u l=0.28u
X13 Y a_172_68# VDD VNW pfet_03v3 ad=0.3588p pd=1.9u as=0.3588p ps=1.9u w=1.38u l=0.28u
X14 Y a_172_68# VSS VPW nfet_03v3 ad=0.26p pd=1.52u as=0.26p ps=1.52u w=1u l=0.28u
X15 a_172_68# A VDD VNW pfet_03v3 ad=0.3588p pd=1.9u as=0.3588p ps=1.9u w=1.38u l=0.28u
X16 VSS a_172_68# Y VPW nfet_03v3 ad=0.26p pd=1.52u as=0.26p ps=1.52u w=1u l=0.28u
X17 VDD a_172_68# Y VNW pfet_03v3 ad=0.3588p pd=1.9u as=0.3588p ps=1.9u w=1.38u l=0.28u
X18 VSS A a_172_68# VPW nfet_03v3 ad=0.26p pd=1.52u as=0.26p ps=1.52u w=1u l=0.28u
X19 VSS a_172_68# Y VPW nfet_03v3 ad=0.26p pd=1.52u as=0.26p ps=1.52u w=1u l=0.28u
X20 VSS a_172_68# Y VPW nfet_03v3 ad=0.26p pd=1.52u as=0.2675p ps=1.535u w=1u l=0.28u
X21 VDD A a_172_68# VNW pfet_03v3 ad=0.3588p pd=1.9u as=0.3588p ps=1.9u w=1.38u l=0.28u
X22 Y a_172_68# VSS VPW nfet_03v3 ad=0.26p pd=1.52u as=0.26p ps=1.52u w=1u l=0.28u
X23 Y a_172_68# VDD VNW pfet_03v3 ad=0.3588p pd=1.9u as=0.3588p ps=1.9u w=1.38u l=0.28u
X24 a_172_68# A VSS VPW nfet_03v3 ad=0.26p pd=1.52u as=0.26p ps=1.52u w=1u l=0.28u
X25 Y a_172_68# VDD VNW pfet_03v3 ad=0.3588p pd=1.9u as=0.3588p ps=1.9u w=1.38u l=0.28u
X26 VDD a_172_68# Y VNW pfet_03v3 ad=0.3588p pd=1.9u as=0.3588p ps=1.9u w=1.38u l=0.28u
X27 Y a_172_68# VSS VPW nfet_03v3 ad=0.26p pd=1.52u as=0.26p ps=1.52u w=1u l=0.28u
X28 a_172_68# A VDD VNW pfet_03v3 ad=0.3588p pd=1.9u as=0.6072p ps=3.64u w=1.38u l=0.28u
X29 VDD a_172_68# Y VNW pfet_03v3 ad=0.3588p pd=1.9u as=0.36915p ps=1.915u w=1.38u l=0.28u
X30 VSS A a_172_68# VPW nfet_03v3 ad=0.26p pd=1.52u as=0.26p ps=1.52u w=1u l=0.28u
X31 Y a_172_68# VSS VPW nfet_03v3 ad=0.2675p pd=1.535u as=0.26p ps=1.52u w=1u l=0.28u
.ends

.subckt constant_block zero one vdd vss
Xgf180mcu_as_sc_mcu7t3v3__decap_4_0 vdd vdd vss vss gf180mcu_as_sc_mcu7t3v3__decap_4
Xgf180mcu_as_sc_mcu7t3v3__decap_4_1 vdd vdd vss vss gf180mcu_as_sc_mcu7t3v3__decap_4
Xgf180mcu_as_sc_mcu7t3v3__tiel_4_0 vdd vdd vss vss gf180mcu_as_sc_mcu7t3v3__buff_12_0/A
+ gf180mcu_as_sc_mcu7t3v3__tiel_4
Xgf180mcu_as_sc_mcu7t3v3__tieh_4_0 vdd vdd vss vss gf180mcu_as_sc_mcu7t3v3__buff_12_1/A
+ gf180mcu_as_sc_mcu7t3v3__tieh_4
Xgf180mcu_as_sc_mcu7t3v3__buff_12_1 vdd vdd vss vss gf180mcu_as_sc_mcu7t3v3__buff_12_1/A
+ one gf180mcu_as_sc_mcu7t3v3__buff_12
Xgf180mcu_as_sc_mcu7t3v3__buff_12_0 vdd vdd vss vss gf180mcu_as_sc_mcu7t3v3__buff_12_0/A
+ zero gf180mcu_as_sc_mcu7t3v3__buff_12
.ends

.subckt gf180mcu_ocd_io__fill10x VDD one zero DVDD DVSS VSS
XGF_NI_FILL10_0_0 DVSS DVDD VDD VSS GF_NI_FILL10_0short
Xconstant_block_0 zero one VDD VSS constant_block
.ends

.subckt lv_nand a_16960_50788# w_16870_51136# a_17113_51095# a_17024_51222# a_17252_51095#
X0 a_17204_50930# a_17113_51095# a_16960_50788# a_16960_50788# nfet_03v3 ad=0.114p pd=0.98u as=0.267p ps=2.09u w=0.6u l=0.28u
X1 a_17024_51222# a_17252_51095# a_17204_50930# a_16960_50788# nfet_03v3 ad=0.264p pd=2.08u as=0.114p ps=0.98u w=0.6u l=0.28u
X2 w_16870_51136# a_17113_51095# a_17024_51222# w_16870_51136# pfet_03v3 ad=0.333p pd=1.755u as=0.534p ps=3.29u w=1.2u l=0.28u
X3 a_17024_51222# a_17252_51095# w_16870_51136# w_16870_51136# pfet_03v3 ad=0.528p pd=3.28u as=0.333p ps=1.755u w=1.2u l=0.28u
.ends

.subckt pmos_6p0_esd_40 w_0_12# a_278_44# a_974_132# a_222_132#
X0 a_974_132# a_278_44# a_222_132# w_0_12# pfet_06v0_dss ad=0.1112n pd=85.56u as=11.2p ps=80.56u w=40u l=2.78u
.ends

.subckt comp018green_out_drv_pleg_4T_Y pmos_6p0_esd_40_0/w_0_12# pmos_6p0_esd_40_0/a_278_44#
+ pmos_6p0_esd_40_0/a_974_132# pmos_6p0_esd_40_0/a_222_132#
Xpmos_6p0_esd_40_0 pmos_6p0_esd_40_0/w_0_12# pmos_6p0_esd_40_0/a_278_44# pmos_6p0_esd_40_0/a_974_132#
+ pmos_6p0_esd_40_0/a_222_132# pmos_6p0_esd_40
.ends

.subckt comp018green_out_drv_pleg_4T_X pmos_6p0_esd_40_0/a_278_44# pmos_6p0_esd_40_1/w_0_12#
+ pmos_6p0_esd_40_0/a_222_132# pmos_6p0_esd_40_1/a_974_132# pmos_6p0_esd_40_1/a_278_44#
+ pmos_6p0_esd_40_1/a_222_132#
Xpmos_6p0_esd_40_0 pmos_6p0_esd_40_1/w_0_12# pmos_6p0_esd_40_0/a_278_44# pmos_6p0_esd_40_1/a_974_132#
+ pmos_6p0_esd_40_0/a_222_132# pmos_6p0_esd_40
Xpmos_6p0_esd_40_1 pmos_6p0_esd_40_1/w_0_12# pmos_6p0_esd_40_1/a_278_44# pmos_6p0_esd_40_1/a_974_132#
+ pmos_6p0_esd_40_1/a_222_132# pmos_6p0_esd_40
.ends

.subckt comp018green_out_paddrv_4T_PMOS_GROUP PMOS_4T_metal_stack_4/m1_340_0# a_2360_2800#
+ PMOS_4T_metal_stack_5/m1_340_0# a_4511_2800# PMOS_4T_metal_stack_5/m1_n44_0# PMOS_4T_metal_stack_1/m1_n44_0#
+ PMOS_4T_metal_stack_1/m1_340_0# PMOS_4T_metal_stack_2/m1_n44_0# a_9428_2800# a_7662_2800#
+ a_11201_2800# a_9815_2800# PMOS_4T_metal_stack_6/m1_340_0# PMOS_4T_metal_stack_2/m1_340_0#
+ PMOS_4T_metal_stack_3/m1_n44_0# a_6280_2800# a_2746_2800# a_974_2800# a_8049_2800#
+ a_5892_2800# PMOS_4T_metal_stack_3/m1_340_0# a_4120_2800# PMOS_4T_metal_stack_4/m1_n44_0#
+ w_n5_111#
Xcomp018green_out_drv_pleg_4T_Y_0 w_n5_111# a_4120_2800# PMOS_4T_metal_stack_1/m1_340_0#
+ PMOS_4T_metal_stack_2/m1_n44_0# comp018green_out_drv_pleg_4T_Y
Xcomp018green_out_drv_pleg_4T_Y_1 w_n5_111# a_9428_2800# PMOS_4T_metal_stack_4/m1_340_0#
+ PMOS_4T_metal_stack_5/m1_n44_0# comp018green_out_drv_pleg_4T_Y
Xcomp018green_out_drv_pleg_4T_Y_2 w_n5_111# a_2746_2800# PMOS_4T_metal_stack_1/m1_340_0#
+ PMOS_4T_metal_stack_1/m1_n44_0# comp018green_out_drv_pleg_4T_Y
Xcomp018green_out_drv_pleg_4T_Y_3 w_n5_111# a_8049_2800# PMOS_4T_metal_stack_4/m1_340_0#
+ PMOS_4T_metal_stack_4/m1_n44_0# comp018green_out_drv_pleg_4T_Y
Xcomp018green_out_drv_pleg_4T_X_0 a_4511_2800# w_n5_111# PMOS_4T_metal_stack_2/m1_n44_0#
+ PMOS_4T_metal_stack_2/m1_340_0# a_5892_2800# PMOS_4T_metal_stack_3/m1_n44_0# comp018green_out_drv_pleg_4T_X
Xcomp018green_out_drv_pleg_4T_X_1 a_9815_2800# w_n5_111# PMOS_4T_metal_stack_5/m1_n44_0#
+ PMOS_4T_metal_stack_5/m1_340_0# a_11201_2800# w_n5_111# comp018green_out_drv_pleg_4T_X
Xcomp018green_out_drv_pleg_4T_X_2 a_7662_2800# w_n5_111# PMOS_4T_metal_stack_4/m1_n44_0#
+ PMOS_4T_metal_stack_3/m1_340_0# a_6280_2800# PMOS_4T_metal_stack_3/m1_n44_0# comp018green_out_drv_pleg_4T_X
Xcomp018green_out_drv_pleg_4T_X_3 a_2360_2800# w_n5_111# PMOS_4T_metal_stack_1/m1_n44_0#
+ PMOS_4T_metal_stack_6/m1_340_0# a_974_2800# w_n5_111# comp018green_out_drv_pleg_4T_X
.ends

.subckt comp018green_out_drv_nleg_4T a_206_444# a_2080_444# a_2366_532# a_48_532#
+ a_436_532# VSUBS
X0 a_436_532# a_206_444# a_48_532# VSUBS nfet_06v0_dss ad=0.14364n pd=83.56u as=10.64p ps=76.56u w=38u l=3.78u
X1 a_2366_532# a_2080_444# a_436_532# VSUBS nfet_06v0_dss ad=10.64p pd=76.56u as=0.14364n ps=83.56u w=38u l=0.28u
.ends

.subckt comp018green_out_paddrv_4T_NMOS_GROUP GR_NMOS_4T_0/w_n1730_n583# a_7847_1028#
+ a_7373_1028# a_803_1028# nmos_4T_metal_stack_1/m1_n44_400# nmos_4T_metal_stack_2/m1_n44_400#
+ nmos_4T_metal_stack_3/m1_n44_400# nmos_4T_metal_stack_3/m1_430_401# a_2677_1028#
+ nmos_4T_metal_stack_1/m1_430_401# a_9721_1028# nmos_4T_metal_stack_2/m1_430_401#
+ nmos_4T_metal_stack_0/m1_n44_400# nmos_4T_metal_stack_4/m1_430_401# a_5499_1028#
+ a_3151_1028# VSUBS a_5025_1028# nmos_4T_metal_stack_4/m1_n44_400#
Xcomp018green_out_drv_nleg_4T_0 a_7847_1028# a_9721_1028# nmos_4T_metal_stack_0/m1_n44_400#
+ nmos_4T_metal_stack_3/m1_n44_400# nmos_4T_metal_stack_3/m1_430_401# VSUBS comp018green_out_drv_nleg_4T
Xcomp018green_out_drv_nleg_4T_1 a_5499_1028# a_7373_1028# nmos_4T_metal_stack_3/m1_n44_400#
+ nmos_4T_metal_stack_2/m1_n44_400# nmos_4T_metal_stack_2/m1_430_401# VSUBS comp018green_out_drv_nleg_4T
Xcomp018green_out_drv_nleg_4T_2 a_3151_1028# a_5025_1028# nmos_4T_metal_stack_2/m1_n44_400#
+ nmos_4T_metal_stack_1/m1_n44_400# nmos_4T_metal_stack_1/m1_430_401# VSUBS comp018green_out_drv_nleg_4T
Xcomp018green_out_drv_nleg_4T_3 a_803_1028# a_2677_1028# nmos_4T_metal_stack_1/m1_n44_400#
+ nmos_4T_metal_stack_4/m1_n44_400# nmos_4T_metal_stack_4/m1_430_401# VSUBS comp018green_out_drv_nleg_4T
.ends

.subckt comp018green_out_paddrv_16T comp018green_out_paddrv_4T_PMOS_GROUP_0/a_7662_2800#
+ comp018green_out_paddrv_4T_PMOS_GROUP_0/a_11201_2800# comp018green_out_paddrv_4T_PMOS_GROUP_0/a_9428_2800#
+ comp018green_out_paddrv_4T_PMOS_GROUP_0/PMOS_4T_metal_stack_4/m1_n44_0# comp018green_out_paddrv_4T_PMOS_GROUP_0/a_9815_2800#
+ m1_12305_8954# comp018green_out_paddrv_4T_PMOS_GROUP_0/a_974_2800# comp018green_out_paddrv_4T_PMOS_GROUP_0/a_6280_2800#
+ comp018green_out_paddrv_4T_PMOS_GROUP_0/a_2746_2800# m1_n360_8434# m1_1026_8954#
+ comp018green_out_paddrv_4T_PMOS_GROUP_0/w_n5_111# comp018green_out_paddrv_4T_PMOS_GROUP_0/PMOS_4T_metal_stack_1/m1_n44_0#
+ comp018green_out_paddrv_4T_PMOS_GROUP_0/PMOS_4T_metal_stack_5/m1_n44_0# m1_12305_9280#
+ comp018green_out_paddrv_4T_PMOS_GROUP_0/a_8049_2800# comp018green_out_paddrv_4T_PMOS_GROUP_0/a_5892_2800#
+ comp018green_out_paddrv_4T_NMOS_GROUP_0/nmos_4T_metal_stack_1/m1_n44_400# comp018green_out_paddrv_4T_NMOS_GROUP_0/nmos_4T_metal_stack_2/m1_n44_400#
+ comp018green_out_paddrv_4T_NMOS_GROUP_0/nmos_4T_metal_stack_3/m1_n44_400# m1_12305_9120#
+ comp018green_out_paddrv_4T_PMOS_GROUP_0/a_4120_2800# m1_1026_9280# comp018green_out_paddrv_4T_PMOS_GROUP_0/PMOS_4T_metal_stack_2/m1_n44_0#
+ m1_1026_9120# comp018green_out_paddrv_4T_PMOS_GROUP_0/a_2360_2800# comp018green_out_paddrv_4T_NMOS_GROUP_0/VSUBS
+ m1_12305_9446# comp018green_out_paddrv_4T_PMOS_GROUP_0/a_4511_2800# m2_1697_23319#
+ m1_1026_9446# comp018green_out_paddrv_4T_PMOS_GROUP_0/PMOS_4T_metal_stack_3/m1_n44_0#
Xcomp018green_out_paddrv_4T_PMOS_GROUP_0 m2_1697_23319# comp018green_out_paddrv_4T_PMOS_GROUP_0/a_2360_2800#
+ m2_1697_23319# comp018green_out_paddrv_4T_PMOS_GROUP_0/a_4511_2800# comp018green_out_paddrv_4T_PMOS_GROUP_0/PMOS_4T_metal_stack_5/m1_n44_0#
+ comp018green_out_paddrv_4T_PMOS_GROUP_0/PMOS_4T_metal_stack_1/m1_n44_0# m2_1697_23319#
+ comp018green_out_paddrv_4T_PMOS_GROUP_0/PMOS_4T_metal_stack_2/m1_n44_0# comp018green_out_paddrv_4T_PMOS_GROUP_0/a_9428_2800#
+ comp018green_out_paddrv_4T_PMOS_GROUP_0/a_7662_2800# comp018green_out_paddrv_4T_PMOS_GROUP_0/a_11201_2800#
+ comp018green_out_paddrv_4T_PMOS_GROUP_0/a_9815_2800# m2_1697_23319# m2_1697_23319#
+ comp018green_out_paddrv_4T_PMOS_GROUP_0/PMOS_4T_metal_stack_3/m1_n44_0# comp018green_out_paddrv_4T_PMOS_GROUP_0/a_6280_2800#
+ comp018green_out_paddrv_4T_PMOS_GROUP_0/a_2746_2800# comp018green_out_paddrv_4T_PMOS_GROUP_0/a_974_2800#
+ comp018green_out_paddrv_4T_PMOS_GROUP_0/a_8049_2800# comp018green_out_paddrv_4T_PMOS_GROUP_0/a_5892_2800#
+ m2_1697_23319# comp018green_out_paddrv_4T_PMOS_GROUP_0/a_4120_2800# comp018green_out_paddrv_4T_PMOS_GROUP_0/PMOS_4T_metal_stack_4/m1_n44_0#
+ comp018green_out_paddrv_4T_PMOS_GROUP_0/w_n5_111# comp018green_out_paddrv_4T_PMOS_GROUP
Xcomp018green_out_paddrv_4T_NMOS_GROUP_0 m1_n360_8434# m1_12305_9120# m1_12305_9280#
+ m1_1026_8954# comp018green_out_paddrv_4T_NMOS_GROUP_0/nmos_4T_metal_stack_1/m1_n44_400#
+ comp018green_out_paddrv_4T_NMOS_GROUP_0/nmos_4T_metal_stack_2/m1_n44_400# comp018green_out_paddrv_4T_NMOS_GROUP_0/nmos_4T_metal_stack_3/m1_n44_400#
+ m2_1697_23319# m1_1026_9120# m2_1697_23319# m1_12305_8954# m2_1697_23319# comp018green_out_paddrv_4T_NMOS_GROUP_0/VSUBS
+ m2_1697_23319# m1_12305_9446# m1_1026_9280# comp018green_out_paddrv_4T_NMOS_GROUP_0/VSUBS
+ m1_1026_9446# comp018green_out_paddrv_4T_NMOS_GROUP_0/VSUBS comp018green_out_paddrv_4T_NMOS_GROUP
.ends

.subckt lvlshift_up a_18491_55181# a_18216_53410# a_18479_54386# a_18481_54667# w_18130_54691#
X0 w_18130_54691# a_18491_55181# a_18403_53764# w_18130_54691# pfet_06v0 ad=0.39p pd=2.02u as=0.66p ps=3.88u w=1.5u l=0.7u
X1 a_18491_55181# a_18403_53764# w_18130_54691# w_18130_54691# pfet_06v0 ad=0.675p pd=3.9u as=0.39p ps=2.02u w=1.5u l=0.7u
X2 a_18216_53410# a_18479_54386# a_18403_53764# a_18216_53410# nfet_06v0 ad=0.39p pd=2.02u as=0.66p ps=3.88u w=1.5u l=0.7u
X3 a_18491_55181# a_18481_54667# a_18216_53410# a_18216_53410# nfet_06v0 ad=0.675p pd=3.9u as=0.39p ps=2.02u w=1.5u l=0.7u
.ends

.subckt comp018green_sigbuf_1 Z DVSS DVDD ZB lvlshift_up_0/a_18479_54386# lvlshift_up_0/a_18481_54667#
Xlvlshift_up_0 a_1605_310# DVSS lvlshift_up_0/a_18479_54386# lvlshift_up_0/a_18481_54667#
+ DVDD lvlshift_up
X0 DVSS Z ZB DVSS nfet_06v0 ad=0.66p pd=3.88u as=0.39p ps=2.02u w=1.5u l=0.7u
X1 Z a_1605_310# DVDD DVDD pfet_06v0 ad=0.78p pd=3.52u as=1.32p ps=6.88u w=3u l=0.7u
X2 ZB Z DVDD DVDD pfet_06v0 ad=0.78p pd=3.52u as=0.78p ps=3.52u w=3u l=0.7u
X3 DVDD Z ZB DVDD pfet_06v0 ad=1.32p pd=6.88u as=0.78p ps=3.52u w=3u l=0.7u
X4 ZB Z DVSS DVSS nfet_06v0 ad=0.39p pd=2.02u as=0.39p ps=2.02u w=1.5u l=0.7u
X5 DVDD a_1605_310# Z DVDD pfet_06v0 ad=0.78p pd=3.52u as=0.78p ps=3.52u w=3u l=0.7u
X6 Z a_1605_310# DVSS DVSS nfet_06v0 ad=0.39p pd=2.02u as=0.66p ps=3.88u w=1.5u l=0.7u
X7 DVSS a_1605_310# Z DVSS nfet_06v0 ad=0.39p pd=2.02u as=0.39p ps=2.02u w=1.5u l=0.7u
.ends

.subckt comp018green_out_predrv SL SLB NDRIVE_X ENB DVSS A DVDD NDRIVE_Y PDRIVE_Y
+ PDRIVE_X EN
X0 a_1395_3267# ENB DVSS DVSS nfet_06v0 ad=1.56p pd=6.52u as=1.56p ps=6.52u w=6u l=0.7u
X1 DVDD a_1395_3267# PDRIVE_Y DVDD pfet_06v0 ad=3.12p pd=12.52u as=3.12p ps=12.52u w=12u l=0.7u
X2 NDRIVE_X a_335_226# DVSS DVSS nfet_06v0 ad=1.56p pd=6.52u as=2.64p ps=12.88u w=6u l=0.7u
X3 a_335_226# EN a_1395_3267# DVSS nfet_06v0 ad=2.64p pd=12.88u as=1.56p ps=6.52u w=6u l=0.7u
X4 NDRIVE_Y SL NDRIVE_X DVDD pfet_06v0 ad=5.28p pd=24.88u as=3.12p ps=12.52u w=12u l=0.7u
X5 DVSS a_335_226# NDRIVE_X DVSS nfet_06v0 ad=1.56p pd=6.52u as=1.56p ps=6.52u w=6u l=0.7u
X6 a_335_226# A DVDD DVDD pfet_06v0 ad=5.28p pd=24.88u as=3.12p ps=12.52u w=12u l=0.7u
X7 DVDD a_335_226# NDRIVE_Y DVDD pfet_06v0 ad=3.12p pd=12.52u as=5.28p ps=24.88u w=12u l=0.7u
X8 PDRIVE_X a_1395_3267# DVDD DVDD pfet_06v0 ad=3.12p pd=12.52u as=3.12p ps=12.52u w=12u l=0.7u
X9 PDRIVE_X DVDD PDRIVE_Y DVSS nfet_06v0 ad=0.528p pd=3.28u as=0.528p ps=3.28u w=1.2u l=0.7u
X10 PDRIVE_Y SLB PDRIVE_X DVSS nfet_06v0 ad=1.56p pd=6.52u as=2.64p ps=12.88u w=6u l=0.7u
X11 NDRIVE_Y a_335_226# DVSS DVSS nfet_06v0 ad=1.56p pd=6.52u as=1.56p ps=6.52u w=6u l=0.7u
X12 PDRIVE_X SLB PDRIVE_Y DVSS nfet_06v0 ad=2.64p pd=12.88u as=1.56p ps=6.52u w=6u l=0.7u
X13 NDRIVE_Y a_335_226# DVDD DVDD pfet_06v0 ad=3.12p pd=12.52u as=3.12p ps=12.52u w=12u l=0.7u
X14 a_335_226# ENB a_1395_3267# DVDD pfet_06v0 ad=3.12p pd=12.52u as=5.28p ps=24.88u w=12u l=0.7u
X15 DVDD EN a_335_226# DVDD pfet_06v0 ad=3.12p pd=12.52u as=3.12p ps=12.52u w=12u l=0.7u
X16 NDRIVE_Y DVSS NDRIVE_X DVDD pfet_06v0 ad=0.528p pd=3.28u as=0.528p ps=3.28u w=1.2u l=0.7u
X17 DVSS A a_1395_3267# DVSS nfet_06v0 ad=1.56p pd=6.52u as=2.64p ps=12.88u w=6u l=0.7u
X18 DVSS a_335_226# NDRIVE_Y DVSS nfet_06v0 ad=1.56p pd=6.52u as=1.56p ps=6.52u w=6u l=0.7u
X19 DVDD a_1395_3267# PDRIVE_X DVDD pfet_06v0 ad=5.28p pd=24.88u as=3.12p ps=12.52u w=12u l=0.7u
X20 PDRIVE_Y a_1395_3267# DVDD DVDD pfet_06v0 ad=3.12p pd=12.52u as=5.28p ps=24.88u w=12u l=0.7u
X21 PDRIVE_Y a_1395_3267# DVSS DVSS nfet_06v0 ad=1.56p pd=6.52u as=1.56p ps=6.52u w=6u l=0.7u
X22 DVSS a_1395_3267# PDRIVE_Y DVSS nfet_06v0 ad=2.64p pd=12.88u as=1.56p ps=6.52u w=6u l=0.7u
X23 NDRIVE_X SL NDRIVE_Y DVDD pfet_06v0 ad=3.12p pd=12.52u as=3.12p ps=12.52u w=12u l=0.7u
.ends

.subckt comp018green_out_sigbuf_a AB DVSS DVDD lvlshift_up_0/a_18479_54386# lvlshift_up_0/a_18481_54667#
Xlvlshift_up_0 a_1697_1072# DVSS lvlshift_up_0/a_18479_54386# lvlshift_up_0/a_18481_54667#
+ DVDD lvlshift_up
X0 AB a_1825_270# DVSS DVSS nfet_06v0 ad=1.32p pd=6.88u as=0.78p ps=3.52u w=3u l=0.7u
X1 AB a_1825_270# DVDD DVDD pfet_06v0 ad=2.64p pd=12.88u as=1.56p ps=6.52u w=6u l=0.7u
X2 DVSS a_1697_1072# a_1825_270# DVSS nfet_06v0 ad=0.78p pd=3.52u as=1.32p ps=6.88u w=3u l=0.7u
X3 DVDD a_1697_1072# a_1825_270# DVDD pfet_06v0 ad=1.56p pd=6.52u as=2.64p ps=12.88u w=6u l=0.7u
.ends

.subckt comp018green_out_sigbuf_oe ENB DVDD DVSS EN lvlshift_up_0/a_18479_54386# lvlshift_up_0/a_18481_54667#
Xlvlshift_up_0 a_1783_1072# DVSS lvlshift_up_0/a_18479_54386# lvlshift_up_0/a_18481_54667#
+ DVDD lvlshift_up
X0 DVDD a_1783_1072# EN DVDD pfet_06v0 ad=1.56p pd=6.52u as=2.64p ps=12.88u w=6u l=0.7u
X1 DVSS a_1783_1072# EN DVSS nfet_06v0 ad=0.78p pd=3.52u as=1.32p ps=6.88u w=3u l=0.7u
X2 ENB EN DVDD DVDD pfet_06v0 ad=2.64p pd=12.88u as=1.56p ps=6.52u w=6u l=0.7u
X3 ENB EN DVSS DVSS nfet_06v0 ad=1.32p pd=6.88u as=0.78p ps=3.52u w=3u l=0.7u
.ends

.subckt lv_inv w_15980_51147# a_16280_50941# a_16119_51106# a_16066_50799#
X0 a_16280_50941# a_16119_51106# a_16066_50799# a_16066_50799# nfet_03v3 ad=0.264p pd=2.08u as=0.267p ps=2.09u w=0.6u l=0.28u
X1 a_16280_50941# a_16119_51106# w_15980_51147# w_15980_51147# pfet_03v3 ad=0.528p pd=3.28u as=0.558p ps=3.33u w=1.2u l=0.28u
.ends

.subckt comp018green_in_pupd A DVDD DVSS PU_B PD w_n83_53# a_506_484# a_6234_n7404#
X0 DVSS PD a_6278_n7492# DVSS nfet_06v0 ad=0.66p pd=3.88u as=0.66p ps=3.88u w=1.5u l=0.7u
X1 a_404_1044# a_7646_1324# w_n83_53# ppolyf_u r_width=0.8u r_length=35.7u
X2 a_404_2164# a_6278_n7492# w_n83_53# ppolyf_u r_width=0.8u r_length=35.7u
X3 DVDD a_6234_n7404# a_6278_n7492# DVDD pfet_06v0 ad=1.32p pd=6.88u as=1.32p ps=6.88u w=3u l=0.7u
X4 a_404_484# a_7646_764# w_n83_53# ppolyf_u r_width=0.8u r_length=35.7u
X5 a_404_1044# a_7646_764# w_n83_53# ppolyf_u r_width=0.8u r_length=35.7u
X6 a_404_2164# a_7646_1884# w_n83_53# ppolyf_u r_width=0.8u r_length=35.7u
X7 a_404_484# A w_n83_53# ppolyf_u r_width=0.8u r_length=23u
X8 a_404_1604# a_7646_1884# w_n83_53# ppolyf_u r_width=0.8u r_length=35.7u
X9 a_404_1604# a_7646_1324# w_n83_53# ppolyf_u r_width=0.8u r_length=35.7u
.ends

.subckt lv_passgate a_15637_45872# a_15397_45912# w_15280_46078# a_15366_45730# a_15492_45872#
+ a_15396_46108#
X0 a_15637_45872# a_15397_45912# a_15492_45872# a_15366_45730# nfet_03v3 ad=0.264p pd=2.08u as=0.267p ps=2.09u w=0.6u l=0.28u
X1 a_15637_45872# a_15396_46108# a_15492_45872# w_15280_46078# pfet_03v3 ad=0.528p pd=3.28u as=0.528p ps=3.28u w=1.2u l=0.28u
.ends

.subckt comp018green_in_logic_pupd m1_1586_653# m1_1573_n494# m1_1324_578# m1_1842_n2708#
+ m1_1316_n577# a_1638_n204# w_1648_203# m1_1455_n1573#
Xlv_nand_4 a_1638_n204# w_1648_203# m1_1842_n2708# m1_1921_n496# m1_1909_n1494# lv_nand
Xlv_inv_0 w_1648_203# m1_1573_n494# m1_1921_n496# a_1638_n204# lv_inv
Xlv_inv_1 w_1648_203# m1_1586_653# m1_1910_652# a_1638_n204# lv_inv
Xlv_inv_2 w_1648_203# m1_1455_n1773# m1_1455_n1573# a_1638_n204# lv_inv
Xlv_passgate_0 m1_1909_n1494# m1_1455_n1573# w_1648_203# a_1638_n204# m1_1580_n1918#
+ m1_1455_n1773# lv_passgate
Xlv_inv_3 w_1648_203# m1_1580_n1918# m1_1842_n2708# a_1638_n204# lv_inv
Xlv_passgate_1 m1_1909_n1494# m1_1455_n1773# w_1648_203# a_1638_n204# m1_1842_n2708#
+ m1_1455_n1573# lv_passgate
Xlv_inv_5 w_1648_203# m1_1324_578# m1_1586_653# a_1638_n204# lv_inv
Xlv_inv_7 w_1648_203# m1_1316_n577# m1_1573_n494# a_1638_n204# lv_inv
Xlv_nand_0 a_1638_n204# w_1648_203# m1_1455_n1573# m1_1910_652# m1_1909_n1494# lv_nand
.ends

.subckt comp018green_sigbuf Z DVSS DVDD ZB IN INB
Xlvlshift_up_0 a_1561_310# DVSS IN INB DVDD lvlshift_up
X0 ZB Z DVSS DVSS nfet_06v0 ad=0.39p pd=2.02u as=0.39p ps=2.02u w=1.5u l=0.7u
X1 DVSS Z ZB DVSS nfet_06v0 ad=0.66p pd=3.88u as=0.39p ps=2.02u w=1.5u l=0.7u
X2 DVDD Z ZB DVDD pfet_06v0 ad=1.32p pd=6.88u as=0.78p ps=3.52u w=3u l=0.7u
X3 DVSS a_1561_310# Z DVSS nfet_06v0 ad=0.39p pd=2.02u as=0.39p ps=2.02u w=1.5u l=0.7u
X4 ZB Z DVDD DVDD pfet_06v0 ad=0.78p pd=3.52u as=0.78p ps=3.52u w=3u l=0.7u
X5 Z a_1561_310# DVSS DVSS nfet_06v0 ad=0.39p pd=2.02u as=0.66p ps=3.88u w=1.5u l=0.7u
X6 Z a_1561_310# DVDD DVDD pfet_06v0 ad=0.78p pd=3.52u as=1.32p ps=6.88u w=3u l=0.7u
X7 DVDD a_1561_310# Z DVDD pfet_06v0 ad=0.78p pd=3.52u as=0.78p ps=3.52u w=3u l=0.7u
.ends

.subckt comp018green_in_drv DVDD A DVSS VDD VSS Z a_2771_580# a_1167_270# w_2679_1281#
+ a_923_1522# a_3067_747#
X0 VSS A a_n180_263# VSS nfet_06v0 ad=1.04p pd=4.52u as=1.76p ps=8.88u w=4u l=0.7u
X1 a_n180_263# A VSS VSS nfet_06v0 ad=1.76p pd=8.88u as=1.04p ps=4.52u w=4u l=0.7u
X2 Z a_n180_263# a_1167_270# VSS nfet_06v0 ad=0.325p pd=1.77u as=0.55p ps=3.38u w=1.25u l=0.7u
R0 VDD DVDD 0.000000
R1 VSS DVSS 0.000000
X3 a_1167_270# a_n180_263# Z VSS nfet_06v0 ad=0.55p pd=3.38u as=0.325p ps=1.77u w=1.25u l=0.7u
X4 w_2679_1281# Z a_3067_747# w_2679_1281# pfet_03v3 ad=0.378p pd=1.94u as=0.378p ps=1.94u w=1.4u l=0.28u
X5 a_923_1522# a_n180_263# Z VDD pfet_06v0 ad=0.65p pd=3.02u as=0.65p ps=3.02u w=2.5u l=0.7u
X6 a_2771_580# Z a_3067_747# a_2771_580# nfet_03v3 ad=0.162p pd=1.14u as=0.162p ps=1.14u w=0.6u l=0.28u
X7 a_3067_747# Z w_2679_1281# w_2679_1281# pfet_03v3 ad=0.378p pd=1.94u as=0.644p ps=3.72u w=1.4u l=0.28u
X8 a_3067_747# Z a_2771_580# a_2771_580# nfet_03v3 ad=0.162p pd=1.14u as=0.276p ps=2.12u w=0.6u l=0.28u
X9 a_3067_747# Z a_2771_580# a_2771_580# nfet_03v3 ad=0.162p pd=1.14u as=0.162p ps=1.14u w=0.6u l=0.28u
X10 a_3067_747# Z a_2771_580# a_2771_580# nfet_03v3 ad=0.162p pd=1.14u as=0.162p ps=1.14u w=0.6u l=0.28u
X11 a_2771_580# Z a_3067_747# a_2771_580# nfet_03v3 ad=0.276p pd=2.12u as=0.162p ps=1.14u w=0.6u l=0.28u
X12 a_2771_580# Z a_3067_747# a_2771_580# nfet_03v3 ad=0.162p pd=1.14u as=0.162p ps=1.14u w=0.6u l=0.28u
X13 Z a_n180_263# a_923_1522# VDD pfet_06v0 ad=0.65p pd=3.02u as=0.65p ps=3.02u w=2.5u l=0.7u
X14 w_2679_1281# Z a_3067_747# w_2679_1281# pfet_03v3 ad=0.644p pd=3.72u as=0.378p ps=1.94u w=1.4u l=0.28u
X15 a_n180_263# A VDD VDD pfet_06v0 ad=0.88p pd=4.88u as=0.88p ps=4.88u w=2u l=0.7u
X16 a_3067_747# Z w_2679_1281# w_2679_1281# pfet_03v3 ad=0.378p pd=1.94u as=0.378p ps=1.94u w=1.4u l=0.28u
X17 a_923_1522# a_n180_263# Z VDD pfet_06v0 ad=1.1p pd=5.88u as=0.65p ps=3.02u w=2.5u l=0.7u
X18 w_2679_1281# Z a_3067_747# w_2679_1281# pfet_03v3 ad=0.378p pd=1.94u as=0.378p ps=1.94u w=1.4u l=0.28u
X19 a_3067_747# Z w_2679_1281# w_2679_1281# pfet_03v3 ad=0.378p pd=1.94u as=0.378p ps=1.94u w=1.4u l=0.28u
X20 Z a_n180_263# a_923_1522# VDD pfet_06v0 ad=0.65p pd=3.02u as=1.1p ps=5.88u w=2.5u l=0.7u
.ends

.subckt comp018green_in_cms_smt IE CS DVDD A DVSS Z a_5355_608# m2_5364_1052#
X0 a_1887_280# IE DVSS DVSS nfet_06v0 ad=0.832p pd=3.72u as=0.832p ps=3.72u w=3.2u l=0.7u
X1 a_3115_338# a_1082_620# a_5355_608# DVSS nfet_06v0 ad=0.572p pd=3.48u as=0.572p ps=3.48u w=1.3u l=0.7u
X2 a_1082_620# a_599_280# Z DVDD pfet_06v0 ad=0.88p pd=4.88u as=0.88p ps=4.88u w=2u l=0.7u
X3 DVSS CS a_599_280# DVSS nfet_06v0 ad=0.88p pd=4.88u as=0.52p ps=2.52u w=2u l=0.7u
X4 DVSS a_1809_1797# a_3227_1730# DVDD pfet_06v0 ad=0.494p pd=2.42u as=0.836p ps=4.68u w=1.9u l=0.7u
X5 DVSS IE a_1887_280# DVSS nfet_06v0 ad=0.832p pd=3.72u as=0.832p ps=3.72u w=3.2u l=0.7u
X6 Z CS a_1809_1797# DVSS nfet_06v0 ad=0.66p pd=3.88u as=0.66p ps=3.88u w=1.5u l=0.7u
X7 Z IE DVDD DVDD pfet_06v0 ad=0.88p pd=4.88u as=0.52p ps=2.52u w=2u l=0.7u
X8 Z a_599_280# a_1809_1797# DVDD pfet_06v0 ad=0.88p pd=4.88u as=0.88p ps=4.88u w=2u l=0.7u
X9 a_1887_280# A a_3115_338# DVSS nfet_06v0 ad=0.689p pd=3.17u as=1.166p ps=6.18u w=2.65u l=0.7u
X10 DVDD CS a_1809_1797# DVDD pfet_06v0 ad=0.66p pd=3.88u as=0.39p ps=2.02u w=1.5u l=0.7u
X11 a_3115_338# A a_1887_280# DVSS nfet_06v0 ad=0.689p pd=3.17u as=0.689p ps=3.17u w=2.65u l=0.7u
X12 Z A a_3227_1730# DVDD pfet_06v0 ad=0.559p pd=2.67u as=0.946p ps=5.18u w=2.15u l=0.7u
X13 a_3227_1730# A Z DVDD pfet_06v0 ad=0.946p pd=5.18u as=0.559p ps=2.67u w=2.15u l=0.7u
X14 DVSS a_599_280# a_1082_620# DVSS nfet_06v0 ad=0.66p pd=3.88u as=0.66p ps=3.88u w=1.5u l=0.7u
X15 a_1887_280# A a_3115_338# DVSS nfet_06v0 ad=0.689p pd=3.17u as=0.689p ps=3.17u w=2.65u l=0.7u
X16 DVDD A a_3227_1730# DVDD pfet_06v0 ad=0.494p pd=2.42u as=0.836p ps=4.68u w=1.9u l=0.7u
X17 a_1887_280# IE DVSS DVSS nfet_06v0 ad=1.408p pd=7.28u as=0.832p ps=3.72u w=3.2u l=0.7u
X18 Z A a_3115_338# DVSS nfet_06v0 ad=0.78p pd=3.52u as=1.32p ps=6.88u w=3u l=0.7u
X19 a_599_280# CS DVDD DVDD pfet_06v0 ad=1.04p pd=4.52u as=1.76p ps=8.88u w=4u l=0.7u
X20 Z IE DVDD DVDD pfet_06v0 ad=0.52p pd=2.52u as=0.88p ps=4.88u w=2u l=0.7u
X21 a_3115_338# A Z DVSS nfet_06v0 ad=0.78p pd=3.52u as=0.78p ps=3.52u w=3u l=0.7u
X22 DVDD IE Z DVDD pfet_06v0 ad=0.52p pd=2.52u as=0.52p ps=2.52u w=2u l=0.7u
X23 a_3115_338# A a_1887_280# DVSS nfet_06v0 ad=1.166p pd=6.18u as=0.689p ps=3.17u w=2.65u l=0.7u
X24 a_1082_620# CS Z DVSS nfet_06v0 ad=0.66p pd=3.88u as=0.66p ps=3.88u w=1.5u l=0.7u
X25 a_3227_1730# A DVDD DVDD pfet_06v0 ad=0.836p pd=4.68u as=0.494p ps=2.42u w=1.9u l=0.7u
X26 a_3115_338# A Z DVSS nfet_06v0 ad=1.32p pd=6.88u as=0.78p ps=3.52u w=3u l=0.7u
X27 a_3227_1730# a_1809_1797# DVSS DVDD pfet_06v0 ad=0.836p pd=4.68u as=0.494p ps=2.42u w=1.9u l=0.7u
X28 a_599_280# CS DVSS DVSS nfet_06v0 ad=0.52p pd=2.52u as=0.88p ps=4.88u w=2u l=0.7u
X29 DVDD CS a_599_280# DVDD pfet_06v0 ad=1.76p pd=8.88u as=1.04p ps=4.52u w=4u l=0.7u
X30 a_1887_280# IE DVSS DVSS nfet_06v0 ad=0.832p pd=3.72u as=1.408p ps=7.28u w=3.2u l=0.7u
X31 Z A a_3115_338# DVSS nfet_06v0 ad=0.78p pd=3.52u as=0.78p ps=3.52u w=3u l=0.7u
X32 a_1809_1797# CS DVDD DVDD pfet_06v0 ad=0.39p pd=2.02u as=0.66p ps=3.88u w=1.5u l=0.7u
X33 DVSS IE a_1887_280# DVSS nfet_06v0 ad=0.832p pd=3.72u as=0.832p ps=3.72u w=3.2u l=0.7u
.ends

.subckt comp018green_inpath_cms_smt PAD CS PU comp018green_in_cms_smt_0/a_5355_608#
+ a_1390_1224# comp018green_in_logic_pupd_0/w_1648_203# comp018green_in_pupd_0/w_n83_53#
+ comp018green_in_pupd_0/A m3_9619_4882# m3_9619_3696# comp018green_in_pupd_0/DVSS
+ comp018green_in_pupd_0/DVDD comp018green_in_drv_0/VDD comp018green_in_drv_0/VSS
+ m1_12910_4326# VSUBS m1_10570_5335# comp018green_in_pupd_0/a_506_484# a_1390_2124#
+ w_n13_970# comp018green_sigbuf_3/DVSS comp018green_sigbuf_3/DVDD
Xlv_inv_14 w_n13_970# comp018green_sigbuf_1/IN a_1390_1224# VSUBS lv_inv
Xlv_inv_15 w_n13_970# comp018green_sigbuf_1/INB comp018green_sigbuf_1/IN VSUBS lv_inv
Xcomp018green_in_pupd_0 comp018green_in_pupd_0/A comp018green_in_pupd_0/DVDD comp018green_in_pupd_0/DVSS
+ comp018green_in_pupd_0/PU_B comp018green_sigbuf_0/ZB comp018green_in_pupd_0/w_n83_53#
+ comp018green_in_pupd_0/a_506_484# comp018green_sigbuf_2/Z comp018green_in_pupd
Xcomp018green_in_logic_pupd_0 comp018green_sigbuf_0/IN comp018green_sigbuf_2/IN comp018green_sigbuf_0/INB
+ PU comp018green_sigbuf_2/INB VSUBS comp018green_in_logic_pupd_0/w_1648_203# a_1390_2124#
+ comp018green_in_logic_pupd
Xcomp018green_sigbuf_0 comp018green_sigbuf_0/Z comp018green_sigbuf_3/DVSS comp018green_sigbuf_3/DVDD